LAMMPS (2 Aug 2023 - Update 2)
units            real
boundary         p p p
atom_style       full

atom_modify      map array
pair_style       lj/cut/coul/long 10
bond_style       harmonic
angle_style      harmonic
dihedral_style   opls
improper_style   cvff
special_bonds    amber
pair_modify      mix arithmetic

read_restart     restart.nve   ####
Reading restart file ...
  restart file = 2 Aug 2023, LAMMPS = 2 Aug 2023
  restoring atom style full from restart
  orthogonal box = (-0.39870732 -0.022494239 -0.035485071) to (466.14321 38.000194 41.486885)
  restoring pair style lj/cut/coul/long from restart
  restoring bond style harmonic from restart
  restoring angle style harmonic from restart
  restoring dihedral style opls from restart
  restoring improper style cvff from restart
  75600 atoms
  78400 bonds
  149800 angles
  253400 dihedrals
  1400 impropers
Finding 1-2 1-3 1-4 neighbors ...
     4 = max # of 1-2 neighbors
     7 = max # of 1-3 neighbors
    15 = max # of 1-4 neighbors
    16 = max # of special neighbors
  read_restart CPU = 0.262 seconds

kspace_style     pppm 1e-5

reset_timestep 0
thermo 1000
thermo_style custom step temp press pe ke etotal
timestep 0.5

fix              nve2 all nve
dump             1 all custom 10 dump.lammpstrj id type xs ys zs vx vy vz
dump_modify      1 sort id
run              80000
PPPM initialization ...
  G vector (1/distance) = 0.24346643
  grid = 135 20 20
  stencil order = 5
  estimated absolute RMS force accuracy = 0.0033594086
  estimated relative force accuracy = 1.0116759e-05
  3d grid and FFT values/proc = 3570 1215
Generated 66 of 66 mixed pair_coeff terms from arithmetic mixing rule
Step          Temp          Press          PotEng         KinEng         TotEng
0   303.63893     -61.713484      86060.975      68423.896      154484.87
Averages over the last 41 of 81 rows, steps 40000 to 80000:
Temp Press PotEng KinEng TotEng
303.324 16.7855 86132.2 68352.8 154485
Loop time of 1335.83 on 64 procs for 80000 steps with 75600 atoms

write_restart    restart.nve
System init for write_restart ...
PPPM initialization ...
  G vector (1/distance) = 0.24346643
  grid = 135 20 20
  stencil order = 5
  estimated absolute RMS force accuracy = 0.0033594086
  estimated relative force accuracy = 1.0116759e-05
  3d grid and FFT values/proc = 3570 1215
Generated 66 of 66 mixed pair_coeff terms from arithmetic mixing rule
unfix            nve2
undump           1
